4
Properties=species:S:1:pos:R:3:forces:R:3:charge:R:1 TS=T guess=T for=T H2O=T +=T H=> OH=T H2=T energy=-167.9476716313144 free_energy=-167.9476716313144 dipole="-0.4074839263943899 -0.2838586387997609 0.26663791663090164" pbc="F F F"
O        0.15078880       0.11554612      -0.13739832      -0.03234600       0.01428744       0.00080114      -0.66752581
H        0.23539996      -0.72979852       0.30756677       0.04231478      -0.00377450      -0.00929277       0.32164418
H       -0.76119571       0.39586553      -0.04723973      -0.00108821       0.00135975      -0.00046424       0.33606633
H        2.42633297      -0.72892362      -0.28222003      -0.00888057      -0.01187268       0.00895587       0.00981530
