4
Properties=species:S:1:pos:R:3:forces:R:3:charge:R:1 TS=T guess=T for=T H2O=T +=T H=> OH=T H2=T energy=-168.0677568143106 free_energy=-168.0677568143106 dipole="0.026520881329722752 -0.5852766540309228 -0.016978929621208227" pbc="F F F"
O       -0.02320659       0.39728475       0.01056663       0.01306800       0.03015856       0.00110242      -0.65190615
H        0.79462594      -0.16787089       0.00666024      -0.13451842       0.10179590       0.00090528       0.28590954
H       -0.76475736      -0.21040412      -0.01918660       0.00279826      -0.02141246      -0.00059236       0.33056794
H        1.73028900      -1.02728151      -0.00413502       0.11865216      -0.11054200      -0.00141534       0.03542867
